Version 4
SHEET 1 1380 1100
WIRE 368 -16 224 -16
WIRE 576 -16 448 -16
WIRE -880 96 -880 48
WIRE -736 96 -736 48
WIRE -592 96 -592 48
WIRE 224 112 224 -16
WIRE 368 112 224 112
WIRE 576 112 576 -16
WIRE 576 112 432 112
WIRE -880 224 -880 176
WIRE -736 224 -736 176
WIRE -592 224 -592 176
WIRE -240 384 -368 384
WIRE -112 384 -240 384
WIRE 224 384 224 112
WIRE 224 384 -112 384
WIRE 336 384 224 384
WIRE 368 384 368 224
WIRE 336 400 336 384
WIRE 352 400 336 400
WIRE 576 416 576 112
WIRE 576 416 400 416
WIRE 688 416 576 416
WIRE 352 432 336 432
WIRE -368 448 -368 384
WIRE -240 448 -240 384
WIRE -112 448 -112 384
WIRE 336 448 336 432
WIRE 336 448 224 448
WIRE 224 528 224 448
WIRE -368 608 -368 528
WIRE -240 608 -240 512
WIRE -240 608 -368 608
WIRE -112 608 -112 528
WIRE -112 608 -240 608
WIRE 368 624 368 448
WIRE -240 848 -240 608
FLAG -880 48 Vp
FLAG -736 48 Vn
FLAG -592 48 Vbias
FLAG 368 224 Vp
FLAG 368 624 Vn
FLAG -880 224 0
FLAG -736 224 0
FLAG -592 224 0
FLAG 224 528 0
FLAG -240 848 Vbias
FLAG 688 416 OUT
SYMBOL voltage -880 80 R0
WINDOW 123 0 0 Left 2
WINDOW 39 0 0 Left 2
SYMATTR InstName V1
SYMATTR Value 15
SYMBOL voltage -736 80 R0
WINDOW 123 0 0 Left 2
WINDOW 39 0 0 Left 2
SYMATTR InstName V2
SYMATTR Value -15
SYMBOL voltage -592 80 R0
WINDOW 123 0 0 Left 2
WINDOW 39 0 0 Left 2
SYMATTR InstName V3
SYMATTR Value -0
SYMBOL cap 432 96 R90
WINDOW 0 0 32 VBottom 2
WINDOW 3 32 32 VTop 2
SYMATTR InstName Cf
SYMATTR Value 9.1p
SYMBOL res 464 -32 R90
WINDOW 0 0 56 VBottom 2
WINDOW 3 32 56 VTop 2
SYMATTR InstName Rf
SYMATTR Value 40.2k
SYMBOL current -368 448 R0
WINDOW 123 24 108 Left 2
WINDOW 39 0 0 Left 2
SYMATTR Value2 AC 1
SYMATTR InstName Ip
SYMATTR Value PULSE(0 50u 1n 1n 1n 1 2)
SYMBOL cap -256 448 R0
SYMATTR InstName Cd
SYMATTR Value 100p
SYMBOL res -128 432 R0
SYMATTR InstName Rsh
SYMATTR Value 1G
SYMBOL Opamps\\AD8676 368 352 R0
SYMATTR InstName U1
TEXT 272 768 Left 3 !.TRAN 1n 3.98u
TEXT -352 280 Left 4 ;Photodiode
RECTANGLE Normal 0 688 -448 320 2
